/*---------------------------------------------------------------------------*\
| =========                 |                                                 |
| \\      /  F ield         | OpenFOAM: The Open Source CFD Toolbox           |
|  \\    /   O peration     | Version:  1.4                                   |
|   \\  /    A nd           | Web:      http://www.openfoam.org               |
|    \\/     M anipulation  |                                                 |
\*---------------------------------------------------------------------------*/

FoamFile
{
    version         2.0;
    format          ascii;

    root            "";
    case            "";
    instance        "";
    local           "";

    class           dictionary;
    object          fvSchemes;
}

// * * * * * * * * * * * * * * * * * * * * * * * * * * * * * * * * * * * * * //

ddtSchemes
{
    default         backward; 
}

gradSchemes
{
    default         Gauss linear;
    grad(p)         Gauss linear;
    grad(U)         Gauss linear;
    grad(p2)         Gauss linear;
    grad(U2)         Gauss linear;
}

divSchemes
{
    default         Gauss linear;
    div(phi,U)      Gauss Minmod;
    div(phi2,U2)      Gauss Minmod;
    div(phi,TensorA)      Gauss Minmod;
    div(sigmap)      Gauss linear;
}

laplacianSchemes
{
    default         Gauss linear corrected;
    laplacian(nu,U) Gauss linear corrected;
    laplacian((1|A(U)),p) Gauss linear corrected;
}

interpolationSchemes
{
    default         linear;
    interpolate(HbyA) linear;
}

snGradSchemes
{
    default         corrected;
}

fluxRequired
{
    default         no;
    p;
    p2;
}


// ************************************************************************* //
