/*--------------------------------*- C++ -*----------------------------------*\
| =========                 |                                                 |
| \\      /  F ield         | OpenFOAM: The Open Source CFD Toolbox           |
|  \\    /   O peration     | Version:  1.5                                   |
|   \\  /    A nd           | Web:      http://www.OpenFOAM.org               |
|    \\/     M anipulation  |                                                 |
\*---------------------------------------------------------------------------*/
FoamFile
{
    version     2.0;
    format      ascii;
    class       dictionary;
    object      sampleDict;
}
// * * * * * * * * * * * * * * * * * * * * * * * * * * * * * * * * * * * * * //

interpolationScheme cellPoint;

setFormat     raw;

writeFormat raw;

sets
( 
    //face
    //leftPatc 
    centre
    {
        type            cloud; //uniform;
        axis            x; 
       // start           (0.00 0.000 0.000);
       // end             (0.18 0.000 0.000);
       // nPoints         100;
         points
(
(	0	0	0	)
(	0.001460469	0	0	)
(	0.002894407	0	0	)
(	0.004302296	0	0	)
(	0.005684609	0	0	)
(	0.00704181	0	0	)
(	0.008374357	0	0	)
(	0.009682695	0	0	)
(	0.010967266	0	0	)
(	0.012228502	0	0	)
(	0.013466825	0	0	)
(	0.014682653	0	0	)
(	0.015876393	0	0	)
(	0.017048448	0	0	)
(	0.018199211	0	0	)
(	0.019329069	0	0	)
(	0.020438402	0	0	)
(	0.021527582	0	0	)
(	0.022596977	0	0	)
(	0.023646944	0	0	)
(	0.024677837	0	0	)
(	0.025690003	0	0	)
(	0.026683781	0	0	)
(	0.027659506	0	0	)
(	0.028617506	0	0	)
(	0.029558103	0	0	)
(	0.030481612	0	0	)
(	0.031388345	0	0	)
(	0.032278606	0	0	)
(	0.033152695	0	0	)
(	0.034010904	0	0	)
(	0.034853523	0	0	)
(	0.035680835	0	0	)
(	0.036493117	0	0	)
(	0.037290644	0	0	)
(	0.038073682	0	0	)
(	0.038842495	0	0	)
(	0.039597342	0	0	)
(	0.040338477	0	0	)
(	0.041066147	0	0	)
(	0.041780599	0	0	)
(	0.042482072	0	0	)
(	0.043170801	0	0	)
(	0.043847019	0	0	)
(	0.044510953	0	0	)
(	0.045162825	0	0	)
(	0.045802856	0	0	)
(	0.046431259	0	0	)
(	0.047048247	0	0	)
(	0.047654026	0	0	)
(	0.048248801	0	0	)
(	0.048832771	0	0	)
(	0.049406132	0	0	)
(	0.049969077	0	0	)
(	0.050521796	0	0	)
(	0.051064474	0	0	)
(	0.051597294	0	0	)
(	0.052120434	0	0	)
(	0.052634071	0	0	)
(	0.053138376	0	0	)
(	0.053633521	0	0	)
(	0.054119671	0	0	)
(	0.054596989	0	0	)
(	0.055065636	0	0	)
(	0.055525769	0	0	)
(	0.055977544	0	0	)
(	0.056421111	0	0	)
(	0.056856621	0	0	)
(	0.057284219	0	0	)
(	0.057704049	0	0	)
(	0.058116253	0	0	)
(	0.058520968	0	0	)
(	0.058918331	0	0	)
(	0.059308475	0	0	)
(	0.059691532	0	0	)
(	0.060067631	0	0	)
(	0.060436897	0	0	)
(	0.060799455	0	0	)
(	0.061155426	0	0	)
(	0.061504931	0	0	)
(	0.061848087	0	0	)
(	0.062185008	0	0	)
(	0.06251581	0	0	)
(	0.062840601	0	0	)
(	0.063159493	0	0	)
(	0.063472591	0	0	)
(	0.063780002	0	0	)
(	0.064081828	0	0	)
(	0.064378171	0	0	)
(	0.064669131	0	0	)
(	0.064954805	0	0	)
(	0.065235289	0	0	)
(	0.065510678	0	0	)
(	0.065781065	0	0	)
(	0.066046539	0	0	)
(	0.066307191	0	0	)
(	0.066563107	0	0	)
(	0.066814375	0	0	)
(	0.067061078	0	0	)
(	0.067303299	0	0	)
(	0.06754112	0	0	)
(	0.067774621	0	0	)
(	0.06800388	0	0	)
(	0.068228974	0	0	)
(	0.068449979	0	0	)
(	0.068666969	0	0	)
(	0.068880018	0	0	)
(	0.069089196	0	0	)
(	0.069294574	0	0	)
(	0.069496221	0	0	)
(	0.069694205	0	0	)
(	0.069888592	0	0	)
(	0.070079448	0	0	)
(	0.070266837	0	0	)
(	0.070450822	0	0	)
(	0.070631464	0	0	)
(	0.070808825	0	0	)
(	0.070982964	0	0	)
(	0.071153939	0	0	)
(	0.071321809	0	0	)
(	0.071486628	0	0	)
(	0.071648454	0	0	)
(	0.07180734	0	0	)
(	0.07196334	0	0	)
(	0.072116505	0	0	)
(	0.072266888	0	0	)
(	0.07241454	0	0	)
(	0.072559509	0	0	)
(	0.072701844	0	0	)
(	0.072841594	0	0	)
(	0.072978805	0	0	)
(	0.073113524	0	0	)
(	0.073245795	0	0	)
(	0.073375663	0	0	)
(	0.073503172	0	0	)
(	0.073628365	0	0	)
(	0.073751283	0	0	)
(	0.073871968	0	0	)
(	0.073990461	0	0	)
(	0.074106802	0	0	)
(	0.074221029	0	0	)
(	0.074333181	0	0	)
(	0.074443295	0	0	)
(	0.074551409	0	0	)
(	0.07465756	0	0	)
(	0.074761781	0	0	)
(	0.07486411	0	0	)
(	0.074964579	0	0	)
(	0.075063224	0	0	)
(	0.075160076	0	0	)
(	0.075255169	0	0	)
(	0.075348535	0	0	)
(	0.075440204	0	0	)
(	0.075530208	0	0	)
(	0.075618577	0	0	)
(	0.075705341	0	0	)
(	0.075790528	0	0	)
(	0.075874168	0	0	)
(	0.075956289	0	0	)
(	0.076036917	0	0	)
(	0.076116082	0	0	)
(	0.076193807	0	0	)
(	0.076270121	0	0	)
(	0.076345049	0	0	)
(	0.076418615	0	0	)
(	0.076490845	0	0	)
(	0.076561763	0	0	)
(	0.076631393	0	0	)
(	0.076699757	0	0	)
(	0.07676688	0	0	)
(	0.076832783	0	0	)
(	0.07689749	0	0	)
(	0.07696102	0	0	)
(	0.077023397	0	0	)
(	0.07708464	0	0	)
(	0.077144771	0	0	)
(	0.077203809	0	0	)
(	0.077261775	0	0	)
(	0.077318688	0	0	)
(	0.077374567	0	0	)
(	0.077429431	0	0	)
(	0.077483299	0	0	)
(	0.077536187	0	0	)
(	0.077588115	0	0	)
(	0.0776391	0	0	)
(	0.077689158	0	0	)
(	0.077738307	0	0	)
(	0.077786563	0	0	)
(	0.077833943	0	0	)
(	0.077880462	0	0	)
(	0.077926136	0	0	)
(	0.07797098	0	0	)
(	0.078015009	0	0	)
(	0.078058238	0	0	)
(	0.078100683	0	0	)
(	0.078142356	0	0	)
(	0.078183272	0	0	)
(	0.078223445	0	0	)
(	0.078262888	0	0	)
(	0.078301614	0	0	)
(	0.078339637	0	0	)
(	0.078376969	0	0	)
(	0.078413624	0	0	)
(	0.078449612	0	0	)
(	0.078484946	0	0	)
(	0.078519639	0	0	)
(	0.078553701	0	0	)
(	0.078587145	0	0	)
(	0.07861998	0	0	)
(	0.07865222	0	0	)
(	0.078683874	0	0	)
(	0.078714953	0	0	)
(	0.078745467	0	0	)
(	0.078775427	0	0	)
(	0.078804842	0	0	)
(	0.078833723	0	0	)
(	0.07886208	0	0	)
(	0.078889921	0	0	)
(	0.078917257	0	0	)
(	0.078944096	0	0	)
(	0.078970448	0	0	)
(	0.07899632	0	0	)
(	0.079021723	0	0	)
(	0.079046664	0	0	)
(	0.079071153	0	0	)
(	0.079095196	0	0	)
(	0.079118803	0	0	)
(	0.07914198	0	0	)
(	0.079164737	0	0	)
(	0.07918708	0	0	)
(	0.079209018	0	0	)
(	0.079230557	0	0	)
(	0.079251704	0	0	)
(	0.079272468	0	0	)
(	0.079292854	0	0	)
(	0.07931287	0	0	)
(	0.079332522	0	0	)
(	0.079351817	0	0	)
(	0.079370762	0	0	)
(	0.079389363	0	0	)
(	0.079407625	0	0	)
(	0.079425556	0	0	)
(	0.079443161	0	0	)
(	0.079460447	0	0	)
(	0.079477418	0	0	)
(	0.079494081	0	0	)
(	0.079510441	0	0	)
(	0.079526505	0	0	)
(	0.079542276	0	0	)
(	0.079557761	0	0	)
(	0.079572964	0	0	)
(	0.079587892	0	0	)
(	0.079602548	0	0	)
(	0.079616938	0	0	)
(	0.079631066	0	0	)
(	0.079644938	0	0	)
(	0.079658558	0	0	)
(	0.07967193	0	0	)
(	0.07968506	0	0	)
(	0.079697951	0	0	)
(	0.079710607	0	0	)
(	0.079723034	0	0	)
(	0.079735235	0	0	)
(	0.079747215	0	0	)
(	0.079758977	0	0	)
(	0.079770525	0	0	)
(	0.079781863	0	0	)
(	0.079792996	0	0	)
(	0.079803926	0	0	)
(	0.079814658	0	0	)
(	0.079825194	0	0	)
(	0.079835539	0	0	)
(	0.079845697	0	0	)
(	0.07985567	0	0	)
(	0.079865461	0	0	)
(	0.079875075	0	0	)
(	0.079884514	0	0	)
(	0.079893782	0	0	)
(	0.079902881	0	0	)
(	0.079911815	0	0	)
(	0.079920587	0	0	)
(	0.079929199	0	0	)
(	0.079937655	0	0	)
(	0.079945957	0	0	)
(	0.079954109	0	0	)
(	0.079962112	0	0	)
(	0.07996997	0	0	)
(	0.079977685	0	0	)
(	0.07998526	0	0	)
(	0.079992698	0	0	)
(	0.08	0	0	)
(	0.080007451	0	0	)
(	0.08001519	0	0	)
(	0.080023228	0	0	)
(	0.080031577	0	0	)
(	0.080040248	0	0	)
(	0.080049254	0	0	)
(	0.080058607	0	0	)
(	0.080068322	0	0	)
(	0.080078412	0	0	)
(	0.080088892	0	0	)
(	0.080099776	0	0	)
(	0.080111081	0	0	)
(	0.080122822	0	0	)
(	0.080135017	0	0	)
(	0.080147683	0	0	)
(	0.080160838	0	0	)
(	0.080174501	0	0	)
(	0.080188692	0	0	)
(	0.080203431	0	0	)
(	0.080218739	0	0	)
(	0.080234638	0	0	)
(	0.080251151	0	0	)
(	0.080268302	0	0	)
(	0.080286116	0	0	)
(	0.080304617	0	0	)
(	0.080323833	0	0	)
(	0.080343791	0	0	)
(	0.08036452	0	0	)
(	0.08038605	0	0	)
(	0.080408411	0	0	)
(	0.080431635	0	0	)
(	0.080455757	0	0	)
(	0.08048081	0	0	)
(	0.080506831	0	0	)
(	0.080533857	0	0	)
(	0.080561926	0	0	)
(	0.08059108	0	0	)
(	0.080621359	0	0	)
(	0.080652808	0	0	)
(	0.080685472	0	0	)
(	0.080719397	0	0	)
(	0.080754632	0	0	)
(	0.080791228	0	0	)
(	0.080829237	0	0	)
(	0.080868715	0	0	)
(	0.080909717	0	0	)
(	0.080952302	0	0	)
(	0.080996532	0	0	)
(	0.081042471	0	0	)
(	0.081090184	0	0	)
(	0.081139739	0	0	)
(	0.081191208	0	0	)
(	0.081244665	0	0	)
(	0.081300187	0	0	)
(	0.081357853	0	0	)
(	0.081417746	0	0	)
(	0.081479952	0	0	)
(	0.081544561	0	0	)
(	0.081611665	0	0	)
(	0.081681361	0	0	)
(	0.081753748	0	0	)
(	0.081828931	0	0	)
(	0.081907018	0	0	)
(	0.08198812	0	0	)
(	0.082072355	0	0	)
(	0.082159843	0	0	)
(	0.08225071	0	0	)
(	0.082345086	0	0	)
(	0.082443107	0	0	)
(	0.082544914	0	0	)
(	0.082650652	0	0	)
(	0.082760475	0	0	)
(	0.082874539	0	0	)
(	0.082993008	0	0	)
(	0.083116052	0	0	)
(	0.083243849	0	0	)
(	0.083376581	0	0	)
(	0.08351444	0	0	)
(	0.083657622	0	0	)
(	0.083806335	0	0	)
(	0.083960791	0	0	)
(	0.084121213	0	0	)
(	0.08428783	0	0	)
(	0.084460882	0	0	)
(	0.084640617	0	0	)
(	0.084827294	0	0	)
(	0.085021181	0	0	)
(	0.085222556	0	0	)
(	0.085431708	0	0	)
(	0.085648937	0	0	)
(	0.085874557	0	0	)
(	0.08610889	0	0	)
(	0.086352273	0	0	)
(	0.086605056	0	0	)
(	0.086867602	0	0	)
(	0.087140288	0	0	)
(	0.087423505	0	0	)
(	0.08771766	0	0	)
(	0.088023175	0	0	)
(	0.08834049	0	0	)
(	0.088670061	0	0	)
(	0.089012359	0	0	)
(	0.089367877	0	0	)
(	0.089737126	0	0	)
(	0.090120636	0	0	)
(	0.090518957	0	0	)
(	0.090932662	0	0	)
(	0.091362345	0	0	)
(	0.091808622	0	0	)
(	0.092272135	0	0	)
(	0.09275355	0	0	)
(	0.093253557	0	0	)
(	0.093772875	0	0	)
(	0.09431225	0	0	)
(	0.094872456	0	0	)
(	0.095454297	0	0	)
(	0.096058611	0	0	)
(	0.096686263	0	0	)
(	0.097338156	0	0	)
(	0.098015225	0	0	)
(	0.098718444	0	0	)
(	0.099448822	0	0	)
(	0.100207408	0	0	)
(	0.100995291	0	0	)
(	0.101813604	0	0	)
(	0.10266352	0	0	)
(	0.103546261	0	0	)
(	0.104463094	0	0	)
(	0.105415337	0	0	)
(	0.106404356	0	0	)
(	0.107431572	0	0	)
(	0.108498461	0	0	)
(	0.109606554	0	0	)
(	0.110757442	0	0	)
(	0.111952779	0	0	)
(	0.113194281	0	0	)
(	0.114483732	0	0	)
(	0.115822982	0	0	)
(	0.117213956	0	0	)
(	0.118658651	0	0	)
(	0.120159141	0	0	)
(	0.121717582	0	0	)
(	0.123336211	0	0	)
(	0.125017354	0	0	)
(	0.126763424	0	0	)
(	0.12857693	0	0	)
(	0.130460475	0	0	)
(	0.132416764	0	0	)
(	0.134448608	0	0	)
(	0.136558923	0	0	)
(	0.138750742	0	0	)
(	0.14102721	0	0	)
(	0.143391599	0	0	)
(	0.145847302	0	0	)
(	0.148397848	0	0	)
(	0.151046898	0	0	)
(	0.153798257	0	0	)
(	0.156655877	0	0	)
(	0.159623862	0	0	)
(	0.162706473	0	0	)
(	0.165908138	0	0	)
(	0.169233454	0	0	)
(	0.172687198	0	0	)
(	0.17627433	0	0	)
(	0.18	0	0	)

);   
    }
);

surfaces
();

fields
(
//    U.component(0)
U
//sigmap
sigmap
p
);

// ************************************************************************* //
