/*--------------------------------*- C++ -*----------------------------------*\
| =========                 |                                                 |
| \\      /  F ield         | OpenFOAM: The Open Source CFD Toolbox           |
|  \\    /   O peration     | Version:  1.5-dev                               |
|   \\  /    A nd           | Revision: 1664                                  |
|    \\/     M anipulation  | Web:      http://www.OpenFOAM.org               |
\*---------------------------------------------------------------------------*/
FoamFile
{
    version     2.0;
    format      ascii;
    class       volVectorField;
    location    "0";
    object      U;
}
// * * * * * * * * * * * * * * * * * * * * * * * * * * * * * * * * * * * * * //

dimensions      [0 1 -1 0 0 0 0];

internalField   uniform (0 0 0);

boundaryField
{
    down
    {
        type            fixedValue;
	value		uniform (0 0 0);
    }

    right
    {
        type           zeroGradient;
    }

    up
    {
        type            fixedValue;
	value		uniform (0 0 0);
    }

    left
    {
        type            fixedValue;
        value           uniform (0.1 0 0);    
    }

    cylinder
    {
        type            fixedValue;
	value		uniform (0 0 0);
    }

    defaultFaces
    {
        type            empty;
    }
}


// ************************************************************************* //
********************** //
